FoamFile
{
    format      ascii;
    class       dictionary;
    location    "constant";
    object      physicalProperties;
}
DT          DT [0 2 -1 0 0 0 0] 1e-05;
thermalConductivity
{
    solid
    {
        type            constant;
        value           uniform 200;  // Ví dụ: hệ số dẫn nhiệt của chất rắn (W/m.K)
    }
}

